Version 4.1
SHEET 1 4540 6680
WIRE -240 -336 -240 -816
WIRE -208 -336 -208 -368
WIRE -176 -336 -176 -368
WIRE -144 -336 -144 -368
WIRE -112 -336 -112 -816
WIRE 384 -336 384 -816
WIRE 416 -336 416 -368
WIRE 448 -336 448 -368
WIRE 480 -336 480 -368
WIRE 512 -336 512 -816
WIRE 1008 -336 1008 -816
WIRE 1040 -336 1040 -368
WIRE 1072 -336 1072 -368
WIRE 1104 -336 1104 -368
WIRE 1136 -336 1136 -816
WIRE 1632 -336 1632 -816
WIRE 1664 -336 1664 -368
WIRE 1696 -336 1696 -368
WIRE 1728 -336 1728 -368
WIRE 1760 -336 1760 -816
WIRE 2256 -336 2256 -832
WIRE 2288 -336 2288 -368
WIRE 2320 -336 2320 -368
WIRE 2352 -336 2352 -368
WIRE 2384 -336 2384 -832
WIRE 2880 -336 2880 -816
WIRE 2912 -336 2912 -368
WIRE 2944 -336 2944 -368
WIRE 2976 -336 2976 -368
WIRE 3008 -336 3008 -816
WIRE 3504 -336 3504 -800
WIRE 3536 -336 3536 -368
WIRE 3568 -336 3568 -368
WIRE 3600 -336 3600 -368
WIRE 3632 -336 3632 -800
WIRE 4128 -336 4128 -800
WIRE 4160 -336 4160 -368
WIRE 4192 -336 4192 -368
WIRE 4224 -336 4224 -368
WIRE 4256 -336 4256 -800
WIRE -336 -208 -336 -512
WIRE -288 -208 -336 -208
WIRE 288 -208 288 -512
WIRE 336 -208 288 -208
WIRE 912 -208 912 -512
WIRE 960 -208 912 -208
WIRE 1536 -208 1536 -512
WIRE 1584 -208 1536 -208
WIRE 2160 -208 2160 -512
WIRE 2208 -208 2160 -208
WIRE 2784 -208 2784 -512
WIRE 2832 -208 2784 -208
WIRE 3408 -208 3408 -512
WIRE 3456 -208 3408 -208
WIRE 4032 -208 4032 -512
WIRE 4080 -208 4032 -208
WIRE -288 -176 -416 -176
WIRE 16 -176 16 -496
WIRE 16 -176 -64 -176
WIRE 336 -176 208 -176
WIRE 640 -176 640 -496
WIRE 640 -176 560 -176
WIRE 960 -176 832 -176
WIRE 1264 -176 1264 -496
WIRE 1264 -176 1184 -176
WIRE 1584 -176 1456 -176
WIRE 1888 -176 1888 -512
WIRE 1888 -176 1808 -176
WIRE 2208 -176 2080 -176
WIRE 2512 -176 2512 -528
WIRE 2512 -176 2432 -176
WIRE 2832 -176 2704 -176
WIRE 3136 -176 3136 -528
WIRE 3136 -176 3056 -176
WIRE 3456 -176 3328 -176
WIRE 3760 -176 3760 -544
WIRE 3760 -176 3680 -176
WIRE 4080 -176 3952 -176
WIRE 4384 -176 4384 -528
WIRE 4384 -176 4304 -176
WIRE -160 -16 -160 -48
WIRE 464 -16 464 -48
WIRE 1088 -16 1088 -48
WIRE 1712 -16 1712 -48
WIRE 2336 -16 2336 -48
WIRE 2960 -16 2960 -48
WIRE 3584 -16 3584 -48
WIRE 4208 -16 4208 -48
WIRE -2976 96 -3008 96
WIRE -2736 96 -2768 96
WIRE -2560 96 -2592 96
WIRE -2368 96 -2400 96
WIRE -2192 96 -2224 96
WIRE -2064 96 -2096 96
WIRE -1840 96 -1872 96
WIRE -1648 96 -1680 96
WIRE -1456 96 -1488 96
WIRE -1168 112 -1184 112
WIRE -192 112 -192 -48
WIRE -192 112 -736 112
WIRE 432 112 432 -48
WIRE 432 112 -192 112
WIRE 1056 112 1056 -48
WIRE 1056 112 432 112
WIRE 1680 112 1680 -48
WIRE 1680 112 1056 112
WIRE 2304 112 2304 -48
WIRE 2304 112 1680 112
WIRE 2928 112 2928 -48
WIRE 2928 112 2304 112
WIRE 3552 112 3552 -48
WIRE 3552 112 2928 112
WIRE 4176 112 4176 -48
WIRE 4176 112 3552 112
WIRE -3008 128 -3008 96
WIRE -2768 128 -2768 96
WIRE -2592 128 -2592 96
WIRE -2400 128 -2400 96
WIRE -2224 128 -2224 96
WIRE -1872 128 -1872 96
WIRE -1680 128 -1680 96
WIRE -1488 128 -1488 96
WIRE -1184 144 -1184 112
WIRE -1072 192 -1104 192
WIRE -1072 224 -1104 224
WIRE -3008 240 -3008 208
WIRE -2768 240 -2768 208
WIRE -2592 240 -2592 208
WIRE -2400 240 -2400 208
WIRE -2224 240 -2224 208
WIRE -2096 240 -2096 96
WIRE -1872 240 -1872 208
WIRE -1680 240 -1680 208
WIRE -1488 240 -1488 208
WIRE -1072 256 -1104 256
WIRE -1264 272 -1296 272
WIRE -1072 288 -1104 288
WIRE -1264 304 -1296 304
WIRE -240 304 -240 272
WIRE -208 304 -208 272
WIRE -176 304 -176 272
WIRE -144 304 -144 272
WIRE -112 304 -112 272
WIRE 384 304 384 272
WIRE 416 304 416 272
WIRE 448 304 448 272
WIRE 480 304 480 272
WIRE 512 304 512 272
WIRE 1008 304 1008 272
WIRE 1040 304 1040 272
WIRE 1072 304 1072 272
WIRE 1104 304 1104 272
WIRE 1136 304 1136 272
WIRE 1632 304 1632 272
WIRE 1664 304 1664 272
WIRE 1696 304 1696 272
WIRE 1728 304 1728 272
WIRE 1760 304 1760 272
WIRE 2256 304 2256 272
WIRE 2288 304 2288 272
WIRE 2320 304 2320 272
WIRE 2352 304 2352 272
WIRE 2384 304 2384 272
WIRE 2880 304 2880 272
WIRE 2912 304 2912 272
WIRE 2944 304 2944 272
WIRE 2976 304 2976 272
WIRE 3008 304 3008 272
WIRE 3504 304 3504 272
WIRE 3536 304 3536 272
WIRE 3568 304 3568 272
WIRE 3600 304 3600 272
WIRE 3632 304 3632 272
WIRE 4128 304 4128 272
WIRE 4160 304 4160 272
WIRE 4192 304 4192 272
WIRE 4224 304 4224 272
WIRE 4256 304 4256 272
WIRE -1072 320 -1104 320
WIRE -1264 336 -1296 336
WIRE -1072 352 -1104 352
WIRE -1072 384 -1104 384
WIRE -1072 416 -1104 416
WIRE -336 432 -336 -208
WIRE -288 432 -336 432
WIRE 288 432 288 -208
WIRE 336 432 288 432
WIRE 912 432 912 -208
WIRE 960 432 912 432
WIRE 1536 432 1536 -208
WIRE 1584 432 1536 432
WIRE 2160 432 2160 -208
WIRE 2208 432 2160 432
WIRE 2784 432 2784 -208
WIRE 2832 432 2784 432
WIRE 3408 432 3408 -208
WIRE 3456 432 3408 432
WIRE 4032 432 4032 -208
WIRE 4080 432 4032 432
WIRE -288 464 -416 464
WIRE 16 464 16 -176
WIRE 16 464 -64 464
WIRE 336 464 224 464
WIRE 640 464 640 -176
WIRE 640 464 560 464
WIRE 960 464 848 464
WIRE 1264 464 1264 -176
WIRE 1264 464 1184 464
WIRE 1584 464 1472 464
WIRE 1888 464 1888 -176
WIRE 1888 464 1808 464
WIRE 2208 464 2096 464
WIRE 2512 464 2512 -176
WIRE 2512 464 2432 464
WIRE 2832 464 2720 464
WIRE 3136 464 3136 -176
WIRE 3136 464 3056 464
WIRE 3456 464 3344 464
WIRE 3760 464 3760 -176
WIRE 3760 464 3680 464
WIRE 4080 464 3968 464
WIRE 4384 464 4384 -176
WIRE 4384 464 4304 464
WIRE -1184 496 -1184 464
WIRE -1152 496 -1184 496
WIRE -160 624 -160 592
WIRE 464 624 464 592
WIRE 1088 624 1088 592
WIRE 1712 624 1712 592
WIRE 2336 624 2336 592
WIRE 2960 624 2960 592
WIRE 3584 624 3584 592
WIRE 4208 624 4208 592
WIRE -2960 672 -2992 672
WIRE -2736 672 -2768 672
WIRE -2528 672 -2560 672
WIRE -2304 672 -2336 672
WIRE -2112 672 -2144 672
WIRE -1888 672 -1920 672
WIRE -1680 672 -1712 672
WIRE -1456 672 -1488 672
WIRE -2992 704 -2992 672
WIRE -2768 704 -2768 672
WIRE -2560 704 -2560 672
WIRE -2336 704 -2336 672
WIRE -2144 704 -2144 672
WIRE -1920 704 -1920 672
WIRE -1712 704 -1712 672
WIRE -1488 704 -1488 672
WIRE -192 752 -192 592
WIRE -192 752 -736 752
WIRE 432 752 432 592
WIRE 432 752 -192 752
WIRE 1056 752 1056 592
WIRE 1056 752 432 752
WIRE 1680 752 1680 592
WIRE 1680 752 1056 752
WIRE 2304 752 2304 592
WIRE 2304 752 1680 752
WIRE 2928 752 2928 592
WIRE 2928 752 2304 752
WIRE 3552 752 3552 592
WIRE 3552 752 2928 752
WIRE 4176 752 4176 592
WIRE 4176 752 3552 752
WIRE -2992 816 -2992 784
WIRE -2768 816 -2768 784
WIRE -2560 816 -2560 784
WIRE -2336 816 -2336 784
WIRE -2144 816 -2144 784
WIRE -1920 816 -1920 784
WIRE -1712 816 -1712 784
WIRE -1488 816 -1488 784
WIRE -240 944 -240 912
WIRE -208 944 -208 912
WIRE -176 944 -176 912
WIRE -144 944 -144 912
WIRE -112 944 -112 912
WIRE 384 944 384 912
WIRE 416 944 416 912
WIRE 448 944 448 912
WIRE 480 944 480 912
WIRE 512 944 512 912
WIRE 1008 944 1008 912
WIRE 1040 944 1040 912
WIRE 1072 944 1072 912
WIRE 1104 944 1104 912
WIRE 1136 944 1136 912
WIRE 1632 944 1632 912
WIRE 1664 944 1664 912
WIRE 1696 944 1696 912
WIRE 1728 944 1728 912
WIRE 1760 944 1760 912
WIRE 2256 944 2256 912
WIRE 2288 944 2288 912
WIRE 2320 944 2320 912
WIRE 2352 944 2352 912
WIRE 2384 944 2384 912
WIRE 2880 944 2880 912
WIRE 2912 944 2912 912
WIRE 2944 944 2944 912
WIRE 2976 944 2976 912
WIRE 3008 944 3008 912
WIRE 3504 944 3504 912
WIRE 3536 944 3536 912
WIRE 3568 944 3568 912
WIRE 3600 944 3600 912
WIRE 3632 944 3632 912
WIRE 4128 944 4128 912
WIRE 4160 944 4160 912
WIRE 4192 944 4192 912
WIRE 4224 944 4224 912
WIRE 4256 944 4256 912
WIRE -336 1072 -336 432
WIRE -288 1072 -336 1072
WIRE 288 1072 288 432
WIRE 336 1072 288 1072
WIRE 912 1072 912 432
WIRE 960 1072 912 1072
WIRE 1536 1072 1536 432
WIRE 1584 1072 1536 1072
WIRE 2160 1072 2160 432
WIRE 2208 1072 2160 1072
WIRE 2784 1072 2784 432
WIRE 2832 1072 2784 1072
WIRE 3408 1072 3408 432
WIRE 3456 1072 3408 1072
WIRE 4032 1072 4032 432
WIRE 4080 1072 4032 1072
WIRE -288 1104 -416 1104
WIRE 16 1104 16 464
WIRE 16 1104 -64 1104
WIRE 336 1104 208 1104
WIRE 640 1104 640 464
WIRE 640 1104 560 1104
WIRE 960 1104 832 1104
WIRE 1264 1104 1264 464
WIRE 1264 1104 1184 1104
WIRE 1584 1104 1456 1104
WIRE 1888 1104 1888 464
WIRE 1888 1104 1808 1104
WIRE 2208 1104 2080 1104
WIRE 2512 1104 2512 464
WIRE 2512 1104 2432 1104
WIRE 2832 1104 2704 1104
WIRE 3136 1104 3136 464
WIRE 3136 1104 3056 1104
WIRE 3456 1104 3328 1104
WIRE 3760 1104 3760 464
WIRE 3760 1104 3680 1104
WIRE 4080 1104 3952 1104
WIRE 4384 1104 4384 464
WIRE 4384 1104 4304 1104
WIRE -160 1264 -160 1232
WIRE 464 1264 464 1232
WIRE 1088 1264 1088 1232
WIRE 1712 1264 1712 1232
WIRE 2336 1264 2336 1232
WIRE 2960 1264 2960 1232
WIRE 3584 1264 3584 1232
WIRE 4208 1264 4208 1232
WIRE -2960 1296 -2992 1296
WIRE -2736 1296 -2768 1296
WIRE -2528 1296 -2560 1296
WIRE -2304 1296 -2336 1296
WIRE -2112 1296 -2144 1296
WIRE -1888 1296 -1920 1296
WIRE -1680 1296 -1712 1296
WIRE -1456 1296 -1488 1296
WIRE -2992 1328 -2992 1296
WIRE -2768 1328 -2768 1296
WIRE -2560 1328 -2560 1296
WIRE -2336 1328 -2336 1296
WIRE -2144 1328 -2144 1296
WIRE -1920 1328 -1920 1296
WIRE -1712 1328 -1712 1296
WIRE -1488 1328 -1488 1296
WIRE -192 1408 -192 1232
WIRE -192 1408 -736 1408
WIRE 432 1408 432 1232
WIRE 432 1408 -192 1408
WIRE 1056 1408 1056 1232
WIRE 1056 1408 432 1408
WIRE 1680 1408 1680 1232
WIRE 1680 1408 1056 1408
WIRE 2304 1408 2304 1232
WIRE 2304 1408 1680 1408
WIRE 2928 1408 2928 1232
WIRE 2928 1408 2304 1408
WIRE 3552 1408 3552 1232
WIRE 3552 1408 2928 1408
WIRE 4176 1408 4176 1232
WIRE 4176 1408 3552 1408
WIRE -2992 1440 -2992 1408
WIRE -2768 1440 -2768 1408
WIRE -2560 1440 -2560 1408
WIRE -2336 1440 -2336 1408
WIRE -2144 1440 -2144 1408
WIRE -1920 1440 -1920 1408
WIRE -1712 1440 -1712 1408
WIRE -1488 1440 -1488 1408
WIRE -240 1600 -240 1568
WIRE -208 1600 -208 1568
WIRE -176 1600 -176 1568
WIRE -144 1600 -144 1568
WIRE -112 1600 -112 1568
WIRE 384 1600 384 1568
WIRE 416 1600 416 1568
WIRE 448 1600 448 1568
WIRE 480 1600 480 1568
WIRE 512 1600 512 1568
WIRE 1008 1600 1008 1568
WIRE 1040 1600 1040 1568
WIRE 1072 1600 1072 1568
WIRE 1104 1600 1104 1568
WIRE 1136 1600 1136 1568
WIRE 1632 1600 1632 1568
WIRE 1664 1600 1664 1568
WIRE 1696 1600 1696 1568
WIRE 1728 1600 1728 1568
WIRE 1760 1600 1760 1568
WIRE 2256 1600 2256 1568
WIRE 2288 1600 2288 1568
WIRE 2320 1600 2320 1568
WIRE 2352 1600 2352 1568
WIRE 2384 1600 2384 1568
WIRE 2880 1600 2880 1568
WIRE 2912 1600 2912 1568
WIRE 2944 1600 2944 1568
WIRE 2976 1600 2976 1568
WIRE 3008 1600 3008 1568
WIRE 3504 1600 3504 1568
WIRE 3536 1600 3536 1568
WIRE 3568 1600 3568 1568
WIRE 3600 1600 3600 1568
WIRE 3632 1600 3632 1568
WIRE 4128 1600 4128 1568
WIRE 4160 1600 4160 1568
WIRE 4192 1600 4192 1568
WIRE 4224 1600 4224 1568
WIRE 4256 1600 4256 1568
WIRE -336 1728 -336 1072
WIRE -288 1728 -336 1728
WIRE 288 1728 288 1072
WIRE 336 1728 288 1728
WIRE 912 1728 912 1072
WIRE 960 1728 912 1728
WIRE 1536 1728 1536 1072
WIRE 1584 1728 1536 1728
WIRE 2160 1728 2160 1072
WIRE 2208 1728 2160 1728
WIRE 2784 1728 2784 1072
WIRE 2832 1728 2784 1728
WIRE 3408 1728 3408 1072
WIRE 3456 1728 3408 1728
WIRE 4032 1728 4032 1072
WIRE 4080 1728 4032 1728
WIRE -288 1760 -416 1760
WIRE 16 1760 16 1104
WIRE 16 1760 -64 1760
WIRE 336 1760 208 1760
WIRE 640 1760 640 1104
WIRE 640 1760 560 1760
WIRE 960 1760 832 1760
WIRE 1264 1760 1264 1104
WIRE 1264 1760 1184 1760
WIRE 1584 1760 1456 1760
WIRE 1888 1760 1888 1104
WIRE 1888 1760 1808 1760
WIRE 2208 1760 2080 1760
WIRE 2512 1760 2512 1104
WIRE 2512 1760 2432 1760
WIRE 2832 1760 2704 1760
WIRE 3136 1760 3136 1104
WIRE 3136 1760 3056 1760
WIRE 3456 1760 3328 1760
WIRE 3760 1760 3760 1104
WIRE 3760 1760 3680 1760
WIRE 4080 1760 3952 1760
WIRE 4384 1760 4384 1104
WIRE 4384 1760 4304 1760
WIRE -160 1920 -160 1888
WIRE 464 1920 464 1888
WIRE 1088 1920 1088 1888
WIRE 1712 1920 1712 1888
WIRE 2336 1920 2336 1888
WIRE 2960 1920 2960 1888
WIRE 3584 1920 3584 1888
WIRE 4208 1920 4208 1888
WIRE -192 2064 -192 1888
WIRE -192 2064 -736 2064
WIRE 432 2064 432 1888
WIRE 432 2064 -192 2064
WIRE 1056 2064 1056 1888
WIRE 1056 2064 432 2064
WIRE 1680 2064 1680 1888
WIRE 1680 2064 1056 2064
WIRE 2304 2064 2304 1888
WIRE 2304 2064 1680 2064
WIRE 2928 2064 2928 1888
WIRE 2928 2064 2304 2064
WIRE 3552 2064 3552 1888
WIRE 3552 2064 2928 2064
WIRE 4176 2064 4176 1888
WIRE 4176 2064 3552 2064
WIRE -224 2272 -224 2240
WIRE -192 2272 -192 2240
WIRE -160 2272 -160 2240
WIRE -128 2272 -128 2240
WIRE -96 2272 -96 2240
WIRE 400 2272 400 2240
WIRE 432 2272 432 2240
WIRE 464 2272 464 2240
WIRE 496 2272 496 2240
WIRE 528 2272 528 2240
WIRE 1024 2272 1024 2240
WIRE 1056 2272 1056 2240
WIRE 1088 2272 1088 2240
WIRE 1120 2272 1120 2240
WIRE 1152 2272 1152 2240
WIRE 1648 2272 1648 2240
WIRE 1680 2272 1680 2240
WIRE 1712 2272 1712 2240
WIRE 1744 2272 1744 2240
WIRE 1776 2272 1776 2240
WIRE 2272 2272 2272 2240
WIRE 2304 2272 2304 2240
WIRE 2336 2272 2336 2240
WIRE 2368 2272 2368 2240
WIRE 2400 2272 2400 2240
WIRE 2896 2272 2896 2240
WIRE 2928 2272 2928 2240
WIRE 2960 2272 2960 2240
WIRE 2992 2272 2992 2240
WIRE 3024 2272 3024 2240
WIRE 3520 2272 3520 2240
WIRE 3552 2272 3552 2240
WIRE 3584 2272 3584 2240
WIRE 3616 2272 3616 2240
WIRE 3648 2272 3648 2240
WIRE 4144 2272 4144 2240
WIRE 4176 2272 4176 2240
WIRE 4208 2272 4208 2240
WIRE 4240 2272 4240 2240
WIRE 4272 2272 4272 2240
WIRE -336 2400 -336 1728
WIRE -272 2400 -336 2400
WIRE 288 2400 288 1728
WIRE 352 2400 288 2400
WIRE 912 2400 912 1728
WIRE 976 2400 912 2400
WIRE 1536 2400 1536 1728
WIRE 1600 2400 1536 2400
WIRE 2160 2400 2160 1728
WIRE 2224 2400 2160 2400
WIRE 2784 2400 2784 1728
WIRE 2848 2400 2784 2400
WIRE 3408 2400 3408 1728
WIRE 3472 2400 3408 2400
WIRE 4032 2400 4032 1728
WIRE 4096 2400 4032 2400
WIRE -272 2432 -400 2432
WIRE 16 2432 16 1760
WIRE 16 2432 -48 2432
WIRE 352 2432 224 2432
WIRE 640 2432 640 1760
WIRE 640 2432 576 2432
WIRE 976 2432 848 2432
WIRE 1264 2432 1264 1760
WIRE 1264 2432 1200 2432
WIRE 1600 2432 1472 2432
WIRE 1888 2432 1888 1760
WIRE 1888 2432 1824 2432
WIRE 2224 2432 2096 2432
WIRE 2512 2432 2512 1760
WIRE 2512 2432 2448 2432
WIRE 2848 2432 2720 2432
WIRE 3136 2432 3136 1760
WIRE 3136 2432 3072 2432
WIRE 3472 2432 3344 2432
WIRE 3760 2432 3760 1760
WIRE 3760 2432 3696 2432
WIRE 4096 2432 3968 2432
WIRE 4384 2432 4384 1760
WIRE 4384 2432 4320 2432
WIRE -144 2592 -144 2560
WIRE 480 2592 480 2560
WIRE 1104 2592 1104 2560
WIRE 1728 2592 1728 2560
WIRE 2352 2592 2352 2560
WIRE 2976 2592 2976 2560
WIRE 3600 2592 3600 2560
WIRE 4224 2592 4224 2560
WIRE -176 2720 -176 2560
WIRE -176 2720 -720 2720
WIRE 448 2720 448 2560
WIRE 448 2720 -176 2720
WIRE 1072 2720 1072 2560
WIRE 1072 2720 448 2720
WIRE 1696 2720 1696 2560
WIRE 1696 2720 1072 2720
WIRE 2320 2720 2320 2560
WIRE 2320 2720 1696 2720
WIRE 2944 2720 2944 2560
WIRE 2944 2720 2320 2720
WIRE 3568 2720 3568 2560
WIRE 3568 2720 2944 2720
WIRE 4192 2720 4192 2560
WIRE 4192 2720 3568 2720
WIRE -224 2928 -224 2896
WIRE -192 2928 -192 2896
WIRE -160 2928 -160 2896
WIRE -128 2928 -128 2896
WIRE -96 2928 -96 2896
WIRE 400 2928 400 2896
WIRE 432 2928 432 2896
WIRE 464 2928 464 2896
WIRE 496 2928 496 2896
WIRE 528 2928 528 2896
WIRE 1024 2928 1024 2896
WIRE 1056 2928 1056 2896
WIRE 1088 2928 1088 2896
WIRE 1120 2928 1120 2896
WIRE 1152 2928 1152 2896
WIRE 1648 2928 1648 2896
WIRE 1680 2928 1680 2896
WIRE 1712 2928 1712 2896
WIRE 1744 2928 1744 2896
WIRE 1776 2928 1776 2896
WIRE 2272 2928 2272 2896
WIRE 2304 2928 2304 2896
WIRE 2336 2928 2336 2896
WIRE 2368 2928 2368 2896
WIRE 2400 2928 2400 2896
WIRE 2896 2928 2896 2896
WIRE 2928 2928 2928 2896
WIRE 2960 2928 2960 2896
WIRE 2992 2928 2992 2896
WIRE 3024 2928 3024 2896
WIRE 3520 2928 3520 2896
WIRE 3552 2928 3552 2896
WIRE 3584 2928 3584 2896
WIRE 3616 2928 3616 2896
WIRE 3648 2928 3648 2896
WIRE 4144 2928 4144 2896
WIRE 4176 2928 4176 2896
WIRE 4208 2928 4208 2896
WIRE 4240 2928 4240 2896
WIRE 4272 2928 4272 2896
WIRE -336 3056 -336 2400
WIRE -272 3056 -336 3056
WIRE 288 3056 288 2400
WIRE 352 3056 288 3056
WIRE 912 3056 912 2400
WIRE 976 3056 912 3056
WIRE 1536 3056 1536 2400
WIRE 1600 3056 1536 3056
WIRE 2160 3056 2160 2400
WIRE 2224 3056 2160 3056
WIRE 2784 3056 2784 2400
WIRE 2848 3056 2784 3056
WIRE 3408 3056 3408 2400
WIRE 3472 3056 3408 3056
WIRE 4032 3056 4032 2400
WIRE 4096 3056 4032 3056
WIRE -272 3088 -448 3088
WIRE 16 3088 16 2432
WIRE 16 3088 -48 3088
WIRE 352 3088 176 3088
WIRE 640 3088 640 2432
WIRE 640 3088 576 3088
WIRE 976 3088 800 3088
WIRE 1264 3088 1264 2432
WIRE 1264 3088 1200 3088
WIRE 1600 3088 1424 3088
WIRE 1888 3088 1888 2432
WIRE 1888 3088 1824 3088
WIRE 2224 3088 2048 3088
WIRE 2512 3088 2512 2432
WIRE 2512 3088 2448 3088
WIRE 2848 3088 2672 3088
WIRE 3136 3088 3136 2432
WIRE 3136 3088 3072 3088
WIRE 3472 3088 3296 3088
WIRE 3760 3088 3760 2432
WIRE 3760 3088 3696 3088
WIRE 4096 3088 3920 3088
WIRE 4384 3088 4384 2432
WIRE 4384 3088 4320 3088
WIRE -144 3248 -144 3216
WIRE 480 3248 480 3216
WIRE 1104 3248 1104 3216
WIRE 1728 3248 1728 3216
WIRE 2352 3248 2352 3216
WIRE 2976 3248 2976 3216
WIRE 3600 3248 3600 3216
WIRE 4224 3248 4224 3216
WIRE -176 3376 -176 3216
WIRE -176 3376 -720 3376
WIRE 448 3376 448 3216
WIRE 448 3376 -176 3376
WIRE 1072 3376 1072 3216
WIRE 1072 3376 448 3376
WIRE 1696 3376 1696 3216
WIRE 1696 3376 1072 3376
WIRE 2320 3376 2320 3216
WIRE 2320 3376 1696 3376
WIRE 2944 3376 2944 3216
WIRE 2944 3376 2320 3376
WIRE 3568 3376 3568 3216
WIRE 3568 3376 2944 3376
WIRE 4192 3376 4192 3216
WIRE 4192 3376 3568 3376
WIRE -224 3568 -224 3536
WIRE -192 3568 -192 3536
WIRE -160 3568 -160 3536
WIRE -128 3568 -128 3536
WIRE -96 3568 -96 3536
WIRE 400 3568 400 3536
WIRE 432 3568 432 3536
WIRE 464 3568 464 3536
WIRE 496 3568 496 3536
WIRE 528 3568 528 3536
WIRE 1024 3568 1024 3536
WIRE 1056 3568 1056 3536
WIRE 1088 3568 1088 3536
WIRE 1120 3568 1120 3536
WIRE 1152 3568 1152 3536
WIRE 1648 3568 1648 3536
WIRE 1680 3568 1680 3536
WIRE 1712 3568 1712 3536
WIRE 1744 3568 1744 3536
WIRE 1776 3568 1776 3536
WIRE 2272 3568 2272 3536
WIRE 2304 3568 2304 3536
WIRE 2336 3568 2336 3536
WIRE 2368 3568 2368 3536
WIRE 2400 3568 2400 3536
WIRE 2896 3568 2896 3536
WIRE 2928 3568 2928 3536
WIRE 2960 3568 2960 3536
WIRE 2992 3568 2992 3536
WIRE 3024 3568 3024 3536
WIRE 3520 3568 3520 3536
WIRE 3552 3568 3552 3536
WIRE 3584 3568 3584 3536
WIRE 3616 3568 3616 3536
WIRE 3648 3568 3648 3536
WIRE 4144 3568 4144 3536
WIRE 4176 3568 4176 3536
WIRE 4208 3568 4208 3536
WIRE 4240 3568 4240 3536
WIRE 4272 3568 4272 3536
WIRE -336 3696 -336 3056
WIRE -272 3696 -336 3696
WIRE 288 3696 288 3056
WIRE 352 3696 288 3696
WIRE 912 3696 912 3056
WIRE 976 3696 912 3696
WIRE 1536 3696 1536 3056
WIRE 1600 3696 1536 3696
WIRE 2160 3696 2160 3056
WIRE 2224 3696 2160 3696
WIRE 2784 3696 2784 3056
WIRE 2848 3696 2784 3696
WIRE 3408 3696 3408 3056
WIRE 3472 3696 3408 3696
WIRE 4032 3696 4032 3056
WIRE 4096 3696 4032 3696
WIRE -272 3728 -448 3728
WIRE 16 3728 16 3088
WIRE 16 3728 -48 3728
WIRE 352 3728 176 3728
WIRE 640 3728 640 3088
WIRE 640 3728 576 3728
WIRE 976 3728 800 3728
WIRE 1264 3728 1264 3088
WIRE 1264 3728 1200 3728
WIRE 1600 3728 1424 3728
WIRE 1888 3728 1888 3088
WIRE 1888 3728 1824 3728
WIRE 2224 3728 2048 3728
WIRE 2512 3728 2512 3088
WIRE 2512 3728 2448 3728
WIRE 2848 3728 2672 3728
WIRE 3136 3728 3136 3088
WIRE 3136 3728 3072 3728
WIRE 3472 3728 3296 3728
WIRE 3760 3728 3760 3088
WIRE 3760 3728 3696 3728
WIRE 4096 3728 3920 3728
WIRE 4384 3728 4384 3088
WIRE 4384 3728 4320 3728
WIRE -144 3888 -144 3856
WIRE 480 3888 480 3856
WIRE 1104 3888 1104 3856
WIRE 1728 3888 1728 3856
WIRE 2352 3888 2352 3856
WIRE 2976 3888 2976 3856
WIRE 3600 3888 3600 3856
WIRE 4224 3888 4224 3856
WIRE -176 4016 -176 3856
WIRE -176 4016 -720 4016
WIRE 448 4016 448 3856
WIRE 448 4016 -176 4016
WIRE 1072 4016 1072 3856
WIRE 1072 4016 448 4016
WIRE 1696 4016 1696 3856
WIRE 1696 4016 1072 4016
WIRE 2320 4016 2320 3856
WIRE 2320 4016 1696 4016
WIRE 2944 4016 2944 3856
WIRE 2944 4016 2320 4016
WIRE 3568 4016 3568 3856
WIRE 3568 4016 2944 4016
WIRE 4192 4016 4192 3856
WIRE 4192 4016 3568 4016
WIRE -224 4208 -224 4176
WIRE -192 4208 -192 4176
WIRE -160 4208 -160 4176
WIRE -128 4208 -128 4176
WIRE -96 4208 -96 4176
WIRE 400 4208 400 4176
WIRE 432 4208 432 4176
WIRE 464 4208 464 4176
WIRE 496 4208 496 4176
WIRE 528 4208 528 4176
WIRE 1024 4208 1024 4176
WIRE 1056 4208 1056 4176
WIRE 1088 4208 1088 4176
WIRE 1120 4208 1120 4176
WIRE 1152 4208 1152 4176
WIRE 1648 4208 1648 4176
WIRE 1680 4208 1680 4176
WIRE 1712 4208 1712 4176
WIRE 1744 4208 1744 4176
WIRE 1776 4208 1776 4176
WIRE 2272 4208 2272 4176
WIRE 2304 4208 2304 4176
WIRE 2336 4208 2336 4176
WIRE 2368 4208 2368 4176
WIRE 2400 4208 2400 4176
WIRE 2896 4208 2896 4176
WIRE 2928 4208 2928 4176
WIRE 2960 4208 2960 4176
WIRE 2992 4208 2992 4176
WIRE 3024 4208 3024 4176
WIRE 3520 4208 3520 4176
WIRE 3552 4208 3552 4176
WIRE 3584 4208 3584 4176
WIRE 3616 4208 3616 4176
WIRE 3648 4208 3648 4176
WIRE 4144 4208 4144 4176
WIRE 4176 4208 4176 4176
WIRE 4208 4208 4208 4176
WIRE 4240 4208 4240 4176
WIRE 4272 4208 4272 4176
WIRE -336 4336 -336 3696
WIRE -272 4336 -336 4336
WIRE 288 4336 288 3696
WIRE 352 4336 288 4336
WIRE 912 4336 912 3696
WIRE 976 4336 912 4336
WIRE 1536 4336 1536 3696
WIRE 1600 4336 1536 4336
WIRE 2160 4336 2160 3696
WIRE 2224 4336 2160 4336
WIRE 2784 4336 2784 3696
WIRE 2848 4336 2784 4336
WIRE 3408 4336 3408 3696
WIRE 3472 4336 3408 4336
WIRE 4032 4336 4032 3696
WIRE 4096 4336 4032 4336
WIRE -272 4368 -400 4368
WIRE 16 4368 16 3728
WIRE 16 4368 -48 4368
WIRE 352 4368 224 4368
WIRE 640 4368 640 3728
WIRE 640 4368 576 4368
WIRE 976 4368 848 4368
WIRE 1264 4368 1264 3728
WIRE 1264 4368 1200 4368
WIRE 1600 4368 1472 4368
WIRE 1888 4368 1888 3728
WIRE 1888 4368 1824 4368
WIRE 2224 4368 2096 4368
WIRE 2512 4368 2512 3728
WIRE 2512 4368 2448 4368
WIRE 2848 4368 2720 4368
WIRE 3136 4368 3136 3728
WIRE 3136 4368 3072 4368
WIRE 3472 4368 3344 4368
WIRE 3760 4368 3760 3728
WIRE 3760 4368 3696 4368
WIRE 4096 4368 3968 4368
WIRE 4384 4368 4384 3728
WIRE 4384 4368 4320 4368
WIRE -144 4528 -144 4496
WIRE 480 4528 480 4496
WIRE 1104 4528 1104 4496
WIRE 1728 4528 1728 4496
WIRE 2352 4528 2352 4496
WIRE 2976 4528 2976 4496
WIRE 3600 4528 3600 4496
WIRE 4224 4528 4224 4496
WIRE -176 4656 -176 4496
WIRE -176 4656 -720 4656
WIRE 448 4656 448 4496
WIRE 448 4656 -176 4656
WIRE 1072 4656 1072 4496
WIRE 1072 4656 448 4656
WIRE 1696 4656 1696 4496
WIRE 1696 4656 1072 4656
WIRE 2320 4656 2320 4496
WIRE 2320 4656 1696 4656
WIRE 2944 4656 2944 4496
WIRE 2944 4656 2320 4656
WIRE 3568 4656 3568 4496
WIRE 3568 4656 2944 4656
WIRE 4192 4656 4192 4496
WIRE 4192 4656 3568 4656
WIRE -208 5056 -208 5024
WIRE -176 5056 -176 5024
WIRE -144 5056 -144 5024
WIRE 416 5056 416 5024
WIRE 448 5056 448 5024
WIRE 480 5056 480 5024
WIRE 1056 5056 1056 5024
WIRE 1088 5056 1088 5024
WIRE 1120 5056 1120 5024
WIRE 1680 5056 1680 5024
WIRE 1712 5056 1712 5024
WIRE 1744 5056 1744 5024
WIRE 2288 5056 2288 5024
WIRE 2320 5056 2320 5024
WIRE 2352 5056 2352 5024
WIRE 2912 5056 2912 5024
WIRE 2944 5056 2944 5024
WIRE 2976 5056 2976 5024
WIRE 3552 5056 3552 5024
WIRE 3584 5056 3584 5024
WIRE 3616 5056 3616 5024
WIRE 4176 5056 4176 5024
WIRE 4208 5056 4208 5024
WIRE 4240 5056 4240 5024
WIRE -336 5184 -336 4336
WIRE -272 5184 -336 5184
WIRE 288 5184 288 4336
WIRE 352 5184 288 5184
WIRE 912 5184 912 4336
WIRE 992 5184 912 5184
WIRE 1536 5184 1536 4336
WIRE 1616 5184 1536 5184
WIRE 2160 5184 2160 4336
WIRE 2224 5184 2160 5184
WIRE 2784 5184 2784 4336
WIRE 2848 5184 2784 5184
WIRE 3408 5184 3408 4336
WIRE 3488 5184 3408 5184
WIRE 4032 5184 4032 4336
WIRE 4112 5184 4032 5184
WIRE 16 5216 16 4368
WIRE 16 5216 -64 5216
WIRE 640 5216 640 4368
WIRE 640 5216 560 5216
WIRE 1264 5216 1264 4368
WIRE 1264 5216 1200 5216
WIRE 1888 5216 1888 4368
WIRE 1888 5216 1824 5216
WIRE 2512 5216 2512 4368
WIRE 2512 5216 2432 5216
WIRE 3136 5216 3136 4368
WIRE 3136 5216 3056 5216
WIRE 3760 5216 3760 4368
WIRE 3760 5216 3696 5216
WIRE 4384 5216 4384 4368
WIRE 4384 5216 4320 5216
WIRE -176 5376 -176 5344
WIRE 448 5376 448 5344
WIRE 1088 5376 1088 5344
WIRE 1712 5376 1712 5344
WIRE 2320 5376 2320 5344
WIRE 2944 5376 2944 5344
WIRE 3584 5376 3584 5344
WIRE 4208 5376 4208 5344
FLAG -144 -368 VDD
IOPIN -144 -368 In
FLAG -160 -16 VSS
IOPIN -160 -16 In
FLAG -176 -368 PC
IOPIN -176 -368 In
FLAG -208 -368 Write
IOPIN -208 -368 In
FLAG -240 -816 D[7]
IOPIN -240 -816 In
FLAG -112 -816 _D[7]
IOPIN -112 -816 In
FLAG -736 112 WL[7]
IOPIN -736 112 In
FLAG -1072 192 WL[0]
IOPIN -1072 192 In
FLAG -1072 224 WL[1]
IOPIN -1072 224 In
FLAG -1072 256 WL[2]
IOPIN -1072 256 In
FLAG -1072 288 WL[3]
IOPIN -1072 288 In
FLAG -1072 320 WL[4]
IOPIN -1072 320 In
FLAG -1072 352 WL[5]
IOPIN -1072 352 In
FLAG -1072 384 WL[6]
IOPIN -1072 384 In
FLAG -1072 416 WL[7]
IOPIN -1072 416 In
FLAG 480 -368 VDD
IOPIN 480 -368 In
FLAG 464 -16 VSS
IOPIN 464 -16 In
FLAG 448 -368 PC
IOPIN 448 -368 In
FLAG 416 -368 Write
IOPIN 416 -368 In
FLAG 384 -816 D[6]
IOPIN 384 -816 In
FLAG 512 -816 _D[6]
IOPIN 512 -816 In
FLAG 1104 -368 VDD
IOPIN 1104 -368 In
FLAG 1088 -16 VSS
IOPIN 1088 -16 In
FLAG 1072 -368 PC
IOPIN 1072 -368 In
FLAG 1040 -368 Write
IOPIN 1040 -368 In
FLAG 1008 -816 D[5]
IOPIN 1008 -816 In
FLAG 1136 -816 _D[5]
IOPIN 1136 -816 In
FLAG 1264 -496 BLB[5]
IOPIN 1264 -496 BiDir
FLAG 1728 -368 VDD
IOPIN 1728 -368 In
FLAG 1712 -16 VSS
IOPIN 1712 -16 In
FLAG 1696 -368 PC
IOPIN 1696 -368 In
FLAG 1664 -368 Write
IOPIN 1664 -368 In
FLAG 1632 -816 D[4]
IOPIN 1632 -816 In
FLAG 1760 -816 _D[4]
IOPIN 1760 -816 In
FLAG 1888 -512 BLB[4]
IOPIN 1888 -512 BiDir
FLAG 2352 -368 VDD
IOPIN 2352 -368 In
FLAG 2336 -16 VSS
IOPIN 2336 -16 In
FLAG 2320 -368 PC
IOPIN 2320 -368 In
FLAG 2288 -368 Write
IOPIN 2288 -368 In
FLAG 2256 -832 D[3]
IOPIN 2256 -832 In
FLAG 2384 -832 _D[3]
IOPIN 2384 -832 In
FLAG 2512 -528 BLB[3]
IOPIN 2512 -528 BiDir
FLAG 2976 -368 VDD
IOPIN 2976 -368 In
FLAG 2960 -16 VSS
IOPIN 2960 -16 In
FLAG 2944 -368 PC
IOPIN 2944 -368 In
FLAG 2912 -368 Write
IOPIN 2912 -368 In
FLAG 2880 -816 D[2]
IOPIN 2880 -816 In
FLAG 3008 -816 _D[2]
IOPIN 3008 -816 In
FLAG 3136 -528 BLB[2]
IOPIN 3136 -528 BiDir
FLAG 3600 -368 VDD
IOPIN 3600 -368 In
FLAG 3584 -16 VSS
IOPIN 3584 -16 In
FLAG 3568 -368 PC
IOPIN 3568 -368 In
FLAG 3536 -368 Write
IOPIN 3536 -368 In
FLAG 3504 -800 D[1]
IOPIN 3504 -800 In
FLAG 3632 -800 _D[1]
IOPIN 3632 -800 In
FLAG 3760 -544 BLB[1]
IOPIN 3760 -544 BiDir
FLAG 4224 -368 VDD
IOPIN 4224 -368 In
FLAG 4208 -16 VSS
IOPIN 4208 -16 In
FLAG 4192 -368 PC
IOPIN 4192 -368 In
FLAG 4160 -368 Write
IOPIN 4160 -368 In
FLAG 4128 -800 D[0]
IOPIN 4128 -800 In
FLAG 4256 -800 _D[0]
IOPIN 4256 -800 In
FLAG 4384 -528 BLB[0]
IOPIN 4384 -528 BiDir
FLAG -144 272 VDD
IOPIN -144 272 In
FLAG -160 624 VSS
IOPIN -160 624 In
FLAG -176 272 PC
IOPIN -176 272 In
FLAG -208 272 Write
IOPIN -208 272 In
FLAG -240 272 D[7]
IOPIN -240 272 In
FLAG -112 272 _D[7]
IOPIN -112 272 In
FLAG -736 752 WL[6]
IOPIN -736 752 In
FLAG 480 272 VDD
IOPIN 480 272 In
FLAG 464 624 VSS
IOPIN 464 624 In
FLAG 448 272 PC
IOPIN 448 272 In
FLAG 416 272 Write
IOPIN 416 272 In
FLAG 384 272 D[6]
IOPIN 384 272 In
FLAG 512 272 _D[6]
IOPIN 512 272 In
FLAG 1104 272 VDD
IOPIN 1104 272 In
FLAG 1088 624 VSS
IOPIN 1088 624 In
FLAG 1072 272 PC
IOPIN 1072 272 In
FLAG 1040 272 Write
IOPIN 1040 272 In
FLAG 1008 272 D[5]
IOPIN 1008 272 In
FLAG 1136 272 _D[5]
IOPIN 1136 272 In
FLAG 1728 272 VDD
IOPIN 1728 272 In
FLAG 1712 624 VSS
IOPIN 1712 624 In
FLAG 1696 272 PC
IOPIN 1696 272 In
FLAG 1664 272 Write
IOPIN 1664 272 In
FLAG 1632 272 D[4]
IOPIN 1632 272 In
FLAG 1760 272 _D[4]
IOPIN 1760 272 In
FLAG 2352 272 VDD
IOPIN 2352 272 In
FLAG 2336 624 VSS
IOPIN 2336 624 In
FLAG 2320 272 PC
IOPIN 2320 272 In
FLAG 2288 272 Write
IOPIN 2288 272 In
FLAG 2256 272 D[3]
IOPIN 2256 272 In
FLAG 2384 272 _D[3]
IOPIN 2384 272 In
FLAG 2976 272 VDD
IOPIN 2976 272 In
FLAG 2960 624 VSS
IOPIN 2960 624 In
FLAG 2944 272 PC
IOPIN 2944 272 In
FLAG 2912 272 Write
IOPIN 2912 272 In
FLAG 2880 272 D[2]
IOPIN 2880 272 In
FLAG 3008 272 _D[2]
IOPIN 3008 272 In
FLAG 3600 272 VDD
IOPIN 3600 272 In
FLAG 3584 624 VSS
IOPIN 3584 624 In
FLAG 3568 272 PC
IOPIN 3568 272 In
FLAG 3536 272 Write
IOPIN 3536 272 In
FLAG 3504 272 D[1]
IOPIN 3504 272 In
FLAG 3632 272 _D[1]
IOPIN 3632 272 In
FLAG 4224 272 VDD
IOPIN 4224 272 In
FLAG 4208 624 VSS
IOPIN 4208 624 In
FLAG 4192 272 PC
IOPIN 4192 272 In
FLAG 4160 272 Write
IOPIN 4160 272 In
FLAG 4128 272 D[0]
IOPIN 4128 272 In
FLAG 4256 272 _D[0]
IOPIN 4256 272 In
FLAG -144 912 VDD
IOPIN -144 912 In
FLAG -160 1264 VSS
IOPIN -160 1264 In
FLAG -176 912 PC
IOPIN -176 912 In
FLAG -208 912 Write
IOPIN -208 912 In
FLAG -240 912 D[7]
IOPIN -240 912 In
FLAG -112 912 _D[7]
IOPIN -112 912 In
FLAG 480 912 VDD
IOPIN 480 912 In
FLAG 464 1264 VSS
IOPIN 464 1264 In
FLAG 448 912 PC
IOPIN 448 912 In
FLAG 416 912 Write
IOPIN 416 912 In
FLAG 384 912 D[6]
IOPIN 384 912 In
FLAG 512 912 _D[6]
IOPIN 512 912 In
FLAG 1104 912 VDD
IOPIN 1104 912 In
FLAG 1088 1264 VSS
IOPIN 1088 1264 In
FLAG 1072 912 PC
IOPIN 1072 912 In
FLAG 1040 912 Write
IOPIN 1040 912 In
FLAG 1008 912 D[5]
IOPIN 1008 912 In
FLAG 1136 912 _D[5]
IOPIN 1136 912 In
FLAG 1728 912 VDD
IOPIN 1728 912 In
FLAG 1712 1264 VSS
IOPIN 1712 1264 In
FLAG 1696 912 PC
IOPIN 1696 912 In
FLAG 1664 912 Write
IOPIN 1664 912 In
FLAG 1632 912 D[4]
IOPIN 1632 912 In
FLAG 1760 912 _D[4]
IOPIN 1760 912 In
FLAG 2352 912 VDD
IOPIN 2352 912 In
FLAG 2336 1264 VSS
IOPIN 2336 1264 In
FLAG 2320 912 PC
IOPIN 2320 912 In
FLAG 2288 912 Write
IOPIN 2288 912 In
FLAG 2256 912 D[3]
IOPIN 2256 912 In
FLAG 2384 912 _D[3]
IOPIN 2384 912 In
FLAG 2976 912 VDD
IOPIN 2976 912 In
FLAG 2960 1264 VSS
IOPIN 2960 1264 In
FLAG 2944 912 PC
IOPIN 2944 912 In
FLAG 2912 912 Write
IOPIN 2912 912 In
FLAG 2880 912 D[2]
IOPIN 2880 912 In
FLAG 3008 912 _D[2]
IOPIN 3008 912 In
FLAG 3600 912 VDD
IOPIN 3600 912 In
FLAG 3584 1264 VSS
IOPIN 3584 1264 In
FLAG 3568 912 PC
IOPIN 3568 912 In
FLAG 3536 912 Write
IOPIN 3536 912 In
FLAG 3504 912 D[1]
IOPIN 3504 912 In
FLAG 3632 912 _D[1]
IOPIN 3632 912 In
FLAG 4224 912 VDD
IOPIN 4224 912 In
FLAG 4208 1264 VSS
IOPIN 4208 1264 In
FLAG 4192 912 PC
IOPIN 4192 912 In
FLAG 4160 912 Write
IOPIN 4160 912 In
FLAG 4128 912 D[0]
IOPIN 4128 912 In
FLAG 4256 912 _D[0]
IOPIN 4256 912 In