Version 4
SHEET 1 880 680
WIRE 368 144 288 144
WIRE 368 192 288 192
WIRE 368 240 288 240
WIRE 368 288 288 288
WIRE 368 336 288 336
WIRE 368 384 288 384
WIRE 368 432 288 432
WIRE 368 480 288 480
FLAG 368 144 Val_Zero[0]
IOPIN 368 144 Out
FLAG 368 192 Val_Zero[1]
IOPIN 368 192 Out
FLAG 368 240 Val_Zero[2]
IOPIN 368 240 Out
FLAG 368 288 Val_Zero[3]
IOPIN 368 288 Out
FLAG 368 336 Val_Zero[4]
IOPIN 368 336 Out
FLAG 368 384 Val_Zero[5]
IOPIN 368 384 Out
FLAG 368 432 Val_Zero[6]
IOPIN 368 432 Out
FLAG 368 480 Val_Zero[7]
IOPIN 368 480 Out
FLAG 288 144 0
FLAG 288 192 0
FLAG 288 240 0
FLAG 288 288 0
FLAG 288 336 0
FLAG 288 384 0
FLAG 288 432 0
FLAG 288 480 0
