Version 4
SHEET 1 880 984
WIRE -48 -112 -80 -112
WIRE -80 -96 -80 -112
WIRE 256 -96 224 -96
WIRE 656 -96 624 -96
WIRE 160 -80 16 -80
WIRE 224 -80 224 -96
WIRE 496 -80 320 -80
WIRE 624 -80 624 -96
WIRE -160 -48 -192 -48
WIRE 16 -48 16 -80
WIRE 16 -48 0 -48
WIRE 32 -48 16 -48
WIRE 160 -48 160 -80
WIRE 192 -48 160 -48
WIRE 496 -48 496 -80
WIRE 544 -48 496 -48
WIRE 320 -32 320 -80
WIRE 320 -32 272 -32
WIRE 336 -32 320 -32
WIRE 736 -32 672 -32
WIRE -160 -16 -192 -16
WIRE 16 -16 0 -16
WIRE 32 -16 16 -16
WIRE 192 -16 160 -16
WIRE 544 -16 496 -16
WIRE -80 48 -80 32
WIRE 224 48 224 16
WIRE 624 48 624 16
WIRE 16 96 16 -16
WIRE 496 96 496 -16
WIRE 496 96 16 96
WIRE -48 176 -80 176
WIRE -80 192 -80 176
WIRE 256 192 224 192
WIRE 656 192 624 192
WIRE 160 208 16 208
WIRE 224 208 224 192
WIRE 496 208 320 208
WIRE 624 208 624 192
WIRE -160 240 -192 240
WIRE 16 240 16 208
WIRE 16 240 0 240
WIRE 32 240 16 240
WIRE 160 240 160 208
WIRE 192 240 160 240
WIRE 496 240 496 208
WIRE 544 240 496 240
WIRE 320 256 320 208
WIRE 320 256 272 256
WIRE 336 256 320 256
WIRE 736 256 672 256
WIRE -160 272 -192 272
WIRE 16 272 0 272
WIRE 32 272 16 272
WIRE 192 272 160 272
WIRE 544 272 496 272
WIRE -80 336 -80 320
WIRE 224 336 224 304
WIRE 624 336 624 304
WIRE 16 384 16 272
WIRE 496 384 496 272
WIRE 496 384 16 384
WIRE -32 496 -64 496
WIRE 288 496 256 496
WIRE -64 512 -64 496
WIRE 256 512 256 496
WIRE -144 544 -176 544
WIRE 176 544 144 544
WIRE 16 560 -16 560
WIRE 336 560 304 560
WIRE -144 576 -176 576
WIRE 176 576 144 576
WIRE -64 640 -64 608
WIRE 256 640 256 608
WIRE -48 720 -64 720
WIRE 112 720 96 720
WIRE 256 720 240 720
WIRE 400 720 384 720
WIRE 544 720 528 720
WIRE 672 720 656 720
WIRE -64 768 -64 720
WIRE 96 768 96 720
WIRE 240 768 240 720
WIRE 384 768 384 720
WIRE 528 768 528 720
WIRE 656 768 656 720
WIRE -64 880 -64 848
WIRE 96 880 96 848
WIRE 240 880 240 848
WIRE 384 880 384 848
WIRE 528 880 528 848
WIRE 656 880 656 848
FLAG -48 -112 Vdd
FLAG -48 176 Vdd
FLAG -80 336 0
FLAG -80 48 0
FLAG -192 -48 A0
FLAG -192 -16 B0
FLAG -192 240 A1
FLAG -192 272 B1
FLAG 32 -48 P0
FLAG 32 -16 G0
FLAG 32 240 P1
FLAG 32 272 G1
FLAG 224 48 0
FLAG 256 -96 Vdd
FLAG 160 -16 Cin
FLAG 336 -32 P0.Cin
FLAG 656 -96 Vdd
FLAG 624 48 0
FLAG 736 -32 C1
FLAG 224 336 0
FLAG 256 192 Vdd
FLAG 160 272 C1
FLAG 336 256 P1.C1
FLAG 624 336 0
FLAG 656 192 Vdd
FLAG 736 256 Cout
FLAG -32 496 Vdd
FLAG 288 496 Vdd
FLAG -64 640 0
FLAG 256 640 0
FLAG -176 544 P0
FLAG -176 576 Cin
FLAG 144 544 P1
FLAG 144 576 C1
FLAG 16 560 S0
FLAG 336 560 S1
FLAG -64 880 0
FLAG 96 880 0
FLAG 240 880 0
FLAG 384 880 0
FLAG 528 880 0
FLAG 656 880 0
FLAG 672 720 Vdd
FLAG -48 720 A0
FLAG 112 720 A1
FLAG 256 720 B0
FLAG 400 720 B1
FLAG 544 720 Cin
SYMBOL PG_Generator -80 -32 R0
SYMATTR InstName U1
SYMBOL PG_Generator -80 256 R0
SYMATTR InstName U2
SYMBOL AND1 208 -32 R0
SYMATTR InstName U3
SYMBOL OR1 560 -32 R0
SYMATTR InstName U4
SYMBOL AND1 208 256 R0
SYMATTR InstName U5
SYMBOL OR1 560 256 R0
SYMATTR InstName U6
SYMBOL XOR1 -128 560 R0
SYMATTR InstName U7
SYMBOL XOR1 192 560 R0
SYMATTR InstName U8
SYMBOL voltage -64 752 R0
WINDOW 123 0 0 Left 0
WINDOW 39 0 0 Left 0
SYMATTR InstName V1
SYMATTR Value 1.8
SYMBOL voltage 96 752 R0
WINDOW 123 0 0 Left 0
WINDOW 39 0 0 Left 0
SYMATTR InstName V2
SYMATTR Value 1.8
SYMBOL voltage 240 752 R0
WINDOW 123 0 0 Left 0
WINDOW 39 0 0 Left 0
SYMATTR InstName V3
SYMATTR Value 1.8
SYMBOL voltage 384 752 R0
WINDOW 123 0 0 Left 0
WINDOW 39 0 0 Left 0
SYMATTR InstName V4
SYMATTR Value 1.8
SYMBOL voltage 528 752 R0
WINDOW 123 0 0 Left 0
WINDOW 39 0 0 Left 0
SYMATTR InstName V5
SYMATTR Value 1.8
SYMBOL voltage 656 752 R0
WINDOW 123 0 0 Left 0
WINDOW 39 0 0 Left 0
SYMATTR InstName V6
SYMATTR Value 1.8
TEXT 528 632 Left 2 !.tran 0 10u 0 1u
